Circuit: * C:\Users\MRADULA SINGH\OneDrive\Documents\LTspiceXVII\lab\pmos ckt\pmos_schematics.asc

Instance "m1": Length shorter than recommended for a level 1 MOSFET.
Instance "m1": Width narrower than recommended for a level 1 MOSFET.
.dc sweep increment has wrong sign -- fixing...
.dc sweep increment has wrong sign -- fixing...
.OP point found by inspection.
.step v2=0
.step v2=-0.2
.step v2=-0.4
.step v2=-0.6
.step v2=-0.8
.step v2=-1
.step v2=-1.2
.step v2=-1.4
.step v2=-1.6
.step v2=-1.8

Date: Sun Sep 19 13:27:37 2021
Total elapsed time: 0.258 seconds.

tnom = 27
temp = 27
method = trap
totiter = 396
traniter = 0
tranpoints = 0
accept = 0
rejected = 0
matrix size = 4
fillins = 0
solver = Normal
Matrix Compiler1: 118 bytes object code size  0.1/0.1/[0.0]
Matrix Compiler2: 216 bytes object code size  0.3/0.2/[0.1]

