Circuit: * C:\Users\MRADULA SINGH\OneDrive\Documents\LTspiceXVII\lab\Resistive Load inverter ckt\1Schematic.asc


Date: Wed Sep 15 22:57:43 2021
Total elapsed time: 0.097 seconds.

tnom = 27
temp = 27
method = trap
totiter = 40
traniter = 0
tranpoints = 0
accept = 0
rejected = 0
matrix size = 5
fillins = 0
solver = Normal
Matrix Compiler1: 114 bytes object code size
Matrix Compiler2: 301 bytes object code size
