Circuit: * C:\Users\MRADULA SINGH\OneDrive\Documents\LTspiceXVII\lab\Resistive Load inverter ckt\2Schematic.asc


Date: Wed Sep 15 23:08:44 2021
Total elapsed time: 0.058 seconds.

tnom = 27
temp = 27
method = trap
totiter = 40
traniter = 0
tranpoints = 0
accept = 0
rejected = 0
matrix size = 4
fillins = 0
solver = Normal
Matrix Compiler1: 118 bytes object code size
Matrix Compiler2: 216 bytes object code size
