Circuit: * C:\Users\singh\Documents\LTSpice\Analog IC Design Lab\Lab10\opamp_2stage.asc

Error on line 8 : m1 drain gate 0 0 n_1u l=1u w=448u
	 Unable to find definition of model "w"
	
	* Error:  No unlabeled parameter permitted for MOSFET's
WARNING: Node OUT is floating.

WARNING: Less than two connections to node OUT.  This node is used by C1.
Direct Newton iteration failed to find .op point.  (Use ".option noopiter" to skip.)
Starting Gmin stepping
Increasing initial diagonal Gmin to 100
Gmin = 100
Gmin = 10.7374
Gmin = 1.15292
Gmin = 0.123794
Gmin = 0.0132923
Gmin = 0.00142725
Gmin = 0.00015325
Gmin = 1.6455e-005
Gmin = 1.76685e-006
Gmin = 1.89714e-007
vernier = 0.5
Gmin = 5.39022e-008
vernier = 0.666667
vernier = 0.888888
Gmin = 9.57911e-009
vernier = 1
Gmin = 1.07583e-009
Gmin = 1.15517e-010
Gmin = 1.24035e-011
Gmin = 1.33182e-012
Gmin = 1.43003e-013
Gmin = 0
Gmin stepping succeeded in finding the operating point.


Date: Wed May 11 23:23:38 2022
Total elapsed time: 1.782 seconds.

tnom = 27
temp = 27
method = modified trap
totiter = 2951
traniter = 2163
tranpoints = 1034
accept = 1027
rejected = 7
matrix size = 27
fillins = 12
solver = Normal
Thread vector: 13.0/9.8[2] 2.1/1.0[2] 0.6/1.0[1] 0.1/1.1[1]  2592/500
Matrix Compiler1: 1.92 KB object code size  0.5/0.2/[0.1]
Matrix Compiler2: off  [0.4]/0.6/0.6

