Circuit: * C:\Users\singh\Downloads\ass_1_ques_4.asc

WARNING: Node OUT is floating.

WARNING: Less than two connections to node OUT.  This node is used by C1.
Direct Newton iteration for .op point succeeded.

Date: Sun Mar 13 10:17:49 2022
Total elapsed time: 0.063 seconds.

tnom = 27
temp = 27
method = trap
totiter = 6
traniter = 0
tranpoints = 0
accept = 0
rejected = 0
matrix size = 8
fillins = 0
solver = Normal
Matrix Compiler1:      20 opcodes
Matrix Compiler2: 594 bytes object code size
