Circuit: * C:\Users\singh\Documents\Analog IC Design Lab\Lab2\resistive_load_inverter\resistive-load-inverter.asc

Direct Newton iteration for .op point succeeded.

Date: Sun Mar 06 23:10:35 2022
Total elapsed time: 0.113 seconds.

tnom = 27
temp = 27
method = modified trap
totiter = 2048
traniter = 2034
tranpoints = 1018
accept = 1018
rejected = 0
matrix size = 5
fillins = 0
solver = Normal
Matrix Compiler1: 114 bytes object code size  0.1/0.1/[0.0]
Matrix Compiler2: 301 bytes object code size  0.1/0.1/[0.1]

