Circuit: * C:\Users\singh\Desktop\Analog IC Design Lab\Lab1\resistive-load-inverter.asc


Date: Mon Jan 31 11:34:46 2022
Total elapsed time: 0.041 seconds.

tnom = 27
temp = 27
method = trap
totiter = 2005
traniter = 0
tranpoints = 0
accept = 0
rejected = 0
matrix size = 5
fillins = 0
solver = Normal
Matrix Compiler1: 114 bytes object code size  0.0/0.0/[0.0]
Matrix Compiler2: off  [0.0]/0.0/0.0

