Circuit: * C:\Users\MRADULA SINGH\OneDrive\Documents\LTspiceXVII\lab\nmos ckt\1Schematic.asc

Instance "m1": Length shorter than recommended for a level 1 MOSFET.
Instance "m1": Width narrower than recommended for a level 1 MOSFET.
.step v1=0.2
.step v1=0.6
.step v1=1.2

Date: Wed Sep 15 23:34:42 2021
Total elapsed time: 0.076 seconds.

tnom = 27
temp = 27
method = trap
totiter = 1092
traniter = 0
tranpoints = 0
accept = 0
rejected = 0
matrix size = 4
fillins = 0
solver = Normal
Matrix Compiler1: 118 bytes object code size  0.0/0.0/[0.0]
Matrix Compiler2: 216 bytes object code size  0.0/0.0/[0.0]

