Circuit: * C:\Users\singh\Desktop\Analog IC Design Lab\Lab2\cmos_inverter\cmos-inverter-level54.asc


Date: Thu Feb 03 19:22:31 2022
Total elapsed time: 0.082 seconds.

tnom = 27
temp = 27
method = trap
totiter = 369
traniter = 0
tranpoints = 0
accept = 0
rejected = 0
matrix size = 13
fillins = 0
solver = Normal
Matrix Compiler1: 960 bytes object code size  0.2/0.1/[0.1]
Matrix Compiler2: 1.32 KB object code size  0.1/0.1/[0.1]

