Circuit: * C:\Users\singh\Desktop\Analog IC Design Lab\Lab2\cmos_inverter\cmos-inverter-level3.asc


Date: Thu Feb 03 18:32:17 2022
Total elapsed time: 0.089 seconds.

tnom = 27
temp = 27
method = trap
totiter = 2060
traniter = 0
tranpoints = 0
accept = 0
rejected = 0
matrix size = 5
fillins = 0
solver = Normal
Matrix Compiler1:       8 opcodes  0.1/[0.0]/0.1
Matrix Compiler2: 335 bytes object code size  0.1/0.1/[0.1]

