Circuit: * C:\Users\singh\Desktop\Analog IC Design Lab\Lab2\cmos_inverter\Draft2.asc

WARNING: Node OUT is floating.

WARNING: Less than two connections to node OUT.  This node is used by C1.
Direct Newton iteration for .op point succeeded.

Date: Mon Feb 07 11:39:25 2022
Total elapsed time: 0.065 seconds.

tnom = 27
temp = 27
method = modified trap
totiter = 2038
traniter = 2034
tranpoints = 1018
accept = 1018
rejected = 0
matrix size = 7
fillins = 0
solver = Normal
Matrix Compiler1: 250 bytes object code size  0.1/0.1/[0.1]
Matrix Compiler2: 475 bytes object code size  0.1/0.1/[0.0]

