Circuit: * C:\Users\singh\Documents\Analog IC Design Lab\Lab3\common source amplifier\ac_analysis.asc

WARNING: Node OUT is floating.

WARNING: Less than two connections to node OUT.  This node is used by C1.
Direct Newton iteration for .op point succeeded.

Date: Mon Feb 21 00:42:56 2022
Total elapsed time: 0.065 seconds.

tnom = 27
temp = 27
method = trap
totiter = 6
traniter = 0
tranpoints = 0
accept = 0
rejected = 0
matrix size = 7
fillins = 0
solver = Normal
Matrix Compiler1:      13 opcodes
Matrix Compiler2: 487 bytes object code size
