Circuit: * C:\Users\singh\Documents\Analog IC Design Lab\Lab3\common source amplifier\transient_analysis.asc

WARNING: Node OUT is floating.

WARNING: Less than two connections to node OUT.  This node is used by C1.
Direct Newton iteration for .op point succeeded.

Date: Mon Feb 21 00:39:21 2022
Total elapsed time: 0.082 seconds.

tnom = 27
temp = 27
method = modified trap
totiter = 2042
traniter = 2036
tranpoints = 1018
accept = 1018
rejected = 0
matrix size = 7
fillins = 0
solver = Normal
Matrix Compiler1:      15 opcodes  0.1/[0.0]/0.0
Matrix Compiler2: 475 bytes object code size  0.1/0.1/[0.0]

