Circuit: * C:\Users\singh\Documents\LTSpice\Analog IC Design Lab\Lab5\common source amplifier with diode connected load\commonsource_diodeload.asc

WARNING: Node OUT is floating.

WARNING: Less than two connections to node OUT.  This node is used by C2.
Direct Newton iteration for .op point succeeded.

Date: Sun Mar 13 10:00:22 2022
Total elapsed time: 0.063 seconds.

tnom = 27
temp = 27
method = trap
totiter = 6
traniter = 0
tranpoints = 0
accept = 0
rejected = 0
matrix size = 7
fillins = 0
solver = Normal
Matrix Compiler1:      13 opcodes
Matrix Compiler2: 487 bytes object code size
