Circuit: * C:\Users\singh\Documents\LTspiceXVII\New folder\depletion.asc

Instance "m2": Length shorter than recommended for a level 1 MOSFET.
Instance "m2": Width narrower than recommended for a level 1 MOSFET.
Instance "m1": Length shorter than recommended for a level 1 MOSFET.
Instance "m1": Width narrower than recommended for a level 1 MOSFET.
.step v2=1.8

Date: Fri Dec 31 07:14:45 2021
Total elapsed time: 0.051 seconds.

tnom = 27
temp = 27
method = trap
totiter = 379
traniter = 0
tranpoints = 0
accept = 0
rejected = 0
matrix size = 5
fillins = 0
solver = Normal
Matrix Compiler1: 114 bytes object code size  0.0/0.0/[0.0]
Matrix Compiler2: off  [0.0]/0.0/0.0

