Circuit: * C:\Users\singh\Documents\LTspiceXVII\Draft2.asc

Instance "m2": Length shorter than recommended for a level 1 MOSFET.
Instance "m2": Width narrower than recommended for a level 1 MOSFET.
Instance "m1": Length shorter than recommended for a level 1 MOSFET.
Instance "m1": Width narrower than recommended for a level 1 MOSFET.
Direct Newton iteration for .op point succeeded.

Date: Wed Dec 22 18:27:28 2021
Total elapsed time: 0.045 seconds.

tnom = 27
temp = 27
method = modified trap
totiter = 376
traniter = 370
tranpoints = 185
accept = 185
rejected = 0
matrix size = 5
fillins = 0
solver = Normal
Matrix Compiler1:       8 opcodes  0.0/[0.0]/0.0
Matrix Compiler2: 335 bytes object code size  0.0/0.0/[0.0]

