Circuit: * C:\Users\singh\Documents\LTspiceXVII\New folder\pmos.asc

V2: Missing value, assumed 0V @ DC
.dc sweep increment has wrong sign -- fixing...
.step v2=-1.8
.step v2=-1.7
.step v2=-1.6
.step v2=-1.5
.step v2=-1.4
.step v2=-1.3
.step v2=-1.2
.step v2=-1.1
.step v2=-1
.step v2=-0.9
.step v2=-0.8
.step v2=-0.7
.step v2=-0.6
.step v2=-0.5
.step v2=-0.4
.step v2=-0.3
.step v2=-0.2
.step v2=-0.1
.OP point found by inspection.
.step v2=0

Date: Fri Dec 31 09:11:01 2021
Total elapsed time: 0.045 seconds.

tnom = 27
temp = 27
method = trap
totiter = 758
traniter = 0
tranpoints = 0
accept = 0
rejected = 0
matrix size = 4
fillins = 0
solver = Normal
Matrix Compiler1: 118 bytes object code size  0.1/0.1/[0.0]
Matrix Compiler2: 216 bytes object code size  0.0/0.1/[0.0]

