Circuit: * C:\Users\singh\Desktop\Analog IC Design Lab\Lab1\nmos\Draft1.asc


Date: Mon Jan 31 10:52:59 2022
Total elapsed time: 0.053 seconds.

tnom = 27
temp = 27
method = trap
totiter = 2012
traniter = 0
tranpoints = 0
accept = 0
rejected = 0
matrix size = 5
fillins = 0
solver = Normal
Matrix Compiler1: 132 bytes object code size  0.0/0.0/[0.0]
Matrix Compiler2: 335 bytes object code size  0.0/0.0/[0.0]

