Circuit: * C:\Users\singh\Desktop\Analog IC Design Lab\Lab1\nmos_input.asc

.step vgs=2
.step vgs=3
.step vgs=4
.step vgs=5

Date: Mon Jan 24 13:52:06 2022
Total elapsed time: 0.117 seconds.

tnom = 27
temp = 27
method = trap
totiter = 58
traniter = 0
tranpoints = 0
accept = 0
rejected = 0
matrix size = 4
fillins = 0
solver = Normal
Matrix Compiler1:       7 opcodes
Matrix Compiler2:      20 opcodes
