Circuit: * C:\Users\singh\Downloads\ass_2_ques_4.asc

WARNING: Node OUT is floating.

WARNING: Less than two connections to node OUT.  This node is used by C2.
Direct Newton iteration for .op point succeeded.

Date: Sun Mar 13 10:34:30 2022
Total elapsed time: 0.062 seconds.

tnom = 27
temp = 27
method = trap
totiter = 6
traniter = 0
tranpoints = 0
accept = 0
rejected = 0
matrix size = 9
fillins = 0
solver = Normal
Matrix Compiler1:      24 opcodes
Matrix Compiler2: 701 bytes object code size
