Circuit: * C:\Users\singh\Documents\Analog IC Design Lab\Lab6\CS Amplifier with current mirror\CS.asc

WARNING: Node OUT is floating.

WARNING: Less than two connections to node OUT.  This node is used by C1.
Direct Newton iteration for .op point succeeded.

Date: Mon Mar 07 16:19:28 2022
Total elapsed time: 0.060 seconds.

tnom = 27
temp = 27
method = modified trap
totiter = 2047
traniter = 2034
tranpoints = 1018
accept = 1018
rejected = 0
matrix size = 7
fillins = 0
solver = Normal
Matrix Compiler1: 232 bytes object code size  0.0/0.0/[0.0]
Matrix Compiler2: 481 bytes object code size  0.0/0.1/[0.0]

