Circuit: * C:\Users\singh\Documents\LTSpice\Analog IC Design Lab\Lab9\Draft2.asc

Direct Newton iteration for .op point succeeded.

Date: Mon May 02 11:45:29 2022
Total elapsed time: 0.038 seconds.

tnom = 27
temp = 27
method = trap
totiter = 3
traniter = 0
tranpoints = 0
accept = 0
rejected = 0
matrix size = 6
fillins = 0
solver = Normal
Matrix Compiler1: 182 bytes object code size
Matrix Compiler2: 354 bytes object code size
