Circuit: * C:\Users\singh\Documents\LTSpice\Analog IC Design Lab\Lab9\feedback_amp.asc

Direct Newton iteration for .op point succeeded.

Date: Mon May 02 11:41:16 2022
Total elapsed time: 0.057 seconds.

tnom = 27
temp = 27
method = trap
totiter = 3
traniter = 0
tranpoints = 0
accept = 0
rejected = 0
matrix size = 7
fillins = 1
solver = Normal
Matrix Compiler1: 196 bytes object code size
Matrix Compiler2: 393 bytes object code size
